<?xml version="1.0" encoding="UTF-8"?>
<!-- generated on 2023-08-18 14:00:24.854472 by $Id: ptlines2flows.py v1_3_1+0313-ccb31df3eb jakob.erdmann@dlr.de 2019-09-02 13:26:32 +0200 $ v1_13_0+0000-4b5bca80615
  options: 
-->
<routes xmlns:xsi="http://www.w3.org/2001/XMLSchema-instance" xsi:noNamespaceSchemaLocation="http://sumo.dlr.de/xsd/routes_file.xsd">
    <vType id="pt_bus" vClass="bus"/>
    <vType id="pt_tram" vClass="tram"/>
    <vType id="pt_train" vClass="rail"/>
    <vType id="pt_subway" vClass="rail_urban"/>
    <vType id="pt_light_rail" vClass="rail_urban"/>
    <vType id="pt_monorail" vClass="rail"/>
    <vType id="pt_trolleybus" vClass="bus"/>
    <vType id="pt_minibus" vClass="bus"/>
    <vType id="pt_share_taxi" vClass="taxi"/>
    <vType id="pt_aerialway" vClass="bus"/>
    <vType id="pt_ferry" vClass="ship"/>
    <route id="pt_train_RB26:0" color="0,150,134" edges="635807491#1" >
        <stop busStop="1106283807" duration="20" until="31.0"/> <!-- Berlin Ostkreuz -->
    </route>
    <route id="pt_train_RB26:1" color="0,150,134" edges="137710052 30691606#1 635807491#0 635807491#1" >
        <stop busStop="1106283807" duration="20" until="131.0"/> <!-- Berlin Ostkreuz -->
    </route>
    <route id="pt_train_RB12:0" color="165,2,125" edges="417039023#1 1125299956 -200143174 -28243326#1 -28243326#0 -320398629#3 -320398629#2 -320398675#1 320398677#3 320398660#0 320398660#1" >
        <stop busStop="1342275460" duration="20" until="40.0"/> <!-- Berlin Ostkreuz -->
    </route>
    <route id="pt_train_FLX_10:1" color="green" edges="299339989 271420275 460364211#0 460364211#1 628028609 237729335 437534086#1 4756290#0 4756290#1 27681617 494829336 10360549 10360548#1 142019448 271420277 252505272#0 252505272#1 252505272#2" >
        <stop busStop="2813070487" duration="20" until="31.0"/> <!-- Berlin Hauptbahnhof (Tief) -->
        <stop busStop="604676237" duration="20" until="317.0"/> <!-- Berlin Südkreuz -->
    </route>
    <route id="pt_tram_50:0" color="54,171,148" edges="1047472695#0" >
        <stop busStop="1861177648" duration="20" until="52.0"/> <!-- U Seestraße -->
        <stop busStop="1861282275" duration="20" until="83.0"/> <!-- Seestraße/Amrumer Straße -->
        <stop busStop="1833060707" duration="20" until="114.0"/> <!-- Virchow-Klinikum -->
    </route>
    <route id="pt_train_RB12:1" color="165,2,125" edges="446700170" >
        <stop busStop="5316085165" duration="20" until="59.0"/> <!-- Berlin Ostkreuz -->
    </route>
    <route id="pt_train_ICE_10:2" edges="-240526027 -191589508 -421230278 -116540153 -142142502 -421230281 -421230284 -24157076 -386821325#0 -23714887 -27680806#0 -23714889 -4543658 -24700554#0 -255562648 -255562640 255562650 625014978 26434912 255562639 44908540#0 44908540#1" >
        <stop busStop="-2813070488" duration="20" until="81.0"/> <!-- Berlin Hauptbahnhof (Tief) -->
        <stop busStop="30206148" duration="20" until="339.0"/> <!-- Berlin Gesundbrunnen -->
    </route>
    <route id="pt_light_rail_S75:0" color="128,112,183" edges="517041117#5 654481302#1 517040802#0 517040802#1 517040802#2 545190929 432785722#1 432785722#2 432785722#3 679404412#0 679404412#1 679404412#2 446682250 678992905#0 678992905#1 306723907#1 30691617#1 30691617#2 30691617#3 30691617#4 30691617#5 30691617#6 30691617#7 30691617#8" >
        <stop busStop="5032009260" duration="20" until="40.0"/> <!-- Warschauer Straße -->
        <stop busStop="4095970528" duration="20" until="147.0"/> <!-- Ostkreuz -->
        <stop busStop="1117011753" duration="20" until="241.0"/> <!-- Nöldnerplatz -->
    </route>
    <route id="pt_light_rail_S75:1" color="128,112,183" edges="136651800#0 136651800#1 136651800#2 136651800#3 136651800#4 1013539484 446682252#0 446682252#1 446682261#1 446682261#2 446682261#3 446682261#4 446682261#5 520764265#0 520764265#1 654481298#0 654481298#1" >
        <stop busStop="1117011896" duration="20" until="131.0"/> <!-- Nöldnerplatz -->
        <stop busStop="4095970537" duration="20" until="228.0"/> <!-- Ostkreuz -->
        <stop busStop="6132735787" duration="20" until="328.0"/> <!-- Warschauer Straße -->
    </route>
    <route id="pt_light_rail_S47:0" color="186,138,77" edges="344073168 29653893 292236433 1155777189 383989506" >
        <stop busStop="29925371" duration="20" until="58.0"/> <!-- Köllnische Heide -->
        <stop busStop="316778068" duration="20" until="216.0"/> <!-- Neukölln -->
        <stop busStop="1095078246" duration="20" until="294.0"/> <!-- Hermannstraße -->
    </route>
    <route id="pt_train_RB25:0" color="0,124,176" edges="417039023#1" >
        <stop busStop="1342275460" duration="20" until="40.0"/> <!-- Berlin Ostkreuz -->
    </route>
    <route id="pt_subway_U4:0" color="255,205,0" edges="807043960 386822743 -454894412#1 454894413#1 581541252#1 -386822742" >
        <stop busStop="310377165" duration="20" until="31.0"/> <!-- Innsbrucker Platz -->
        <stop busStop="1560194072" duration="20" until="100.0"/> <!-- Bayerischer Platz -->
        <stop busStop="254096277" duration="20" until="131.0"/> <!-- Viktoria-Luise-Platz -->
        <stop busStop="-2097309445" duration="20" until="317.0"/> <!-- Nollendorfplatz -->
    </route>
    <route id="pt_train_RB13:0" color="255,89,0" edges="27992309#1 27992311#1 15245198#1 295391380#1" >
        <stop busStop="3656889353" duration="20" until="90.0"/> <!-- Berlin Jungfernheide -->
    </route>
    <route id="pt_tram_18:1" color="255,102,51" edges="91569855#1 688149980#1 688155125 86934323#1 154339629 167893760#0 167893760#1 167893760#2 167893760#3 86260988 4789145 171867099#0 155531558#1 155531558#2 155531558#3 155531558#4 155531558#5 1044574243" >
        <stop busStop="244129991" duration="20" until="74.0"/> <!-- Landsberger Allee/Petersburger Straße -->
        <stop busStop="98878581" duration="20" until="125.0"/> <!-- S Landsberger Allee -->
        <stop busStop="30695390" duration="20" until="231.0"/> <!-- Karl-Lade-Straße -->
        <stop busStop="521821577" duration="20" until="262.0"/> <!-- Anton-Saefkow-Platz -->
        <stop busStop="1679204729" duration="20" until="293.0"/> <!-- Roederplatz -->
        <stop busStop="2480027318" duration="20" until="432.0"/> <!-- Bernhard-Bästlein-Straße -->
        <stop busStop="1895220895" duration="20" until="463.0"/> <!-- Herzbergstraße/Industriegebiet -->
    </route>
    <route id="pt_tram_M6:0" color="0,51,136" edges="1172699618 4787489#1 -1038026382 168294597#0 48071896#1 48071896#2 48071896#3 48071896#4 168294595#0 83014039#1 175479660 167893757#0 167893757#1 167893757#2 167893757#3 167893757#4 1047227960 167895771#1 167405685 91569855#1" >
        <stop busStop="1828810863" duration="20" until="88.0"/> <!-- Altenhofer Straße -->
        <stop busStop="98871740" duration="20" until="170.0"/> <!-- Hohenschönhauser Straße -->
        <stop busStop="1828366917" duration="20" until="201.0"/> <!-- Judith-Auer-Straße -->
        <stop busStop="1828354198" duration="20" until="232.0"/> <!-- Oderbruchstraße -->
        <stop busStop="1860777038" duration="20" until="366.0"/> <!-- S Landsberger Allee -->
        <stop busStop="1787945074" duration="20" until="465.0"/> <!-- Landsberger Allee/Petersburger Straße -->
    </route>
    <route id="pt_train_RE8:4" color="129,109,166" edges="421230282 200229909 739812068#0 739812068#1 739860375#0 739860375#1 739860375#2 460364209 628028610 255562643 142142492#1 437534089 437534087 27681619 27681614 27681618 142019429 252505299 252505272#0 252505272#1 252505272#2" >
        <stop busStop="3856100096" duration="20" until="41.0"/> <!-- Berlin Hauptbahnhof (Tief) -->
        <stop busStop="2456043652" duration="20" until="208.0"/> <!-- Berlin Potsdamer Platz -->
        <stop busStop="604676240" duration="20" until="512.0"/> <!-- Berlin Südkreuz -->
    </route>
    <route id="pt_tram_M2:0" color="51,255,51" edges="1052302093#0 1047227962#0 1047227962#1 148814340 1047227964#6 1047227964#7 1049894526#4 1049894526#5 1049894526#6 1049894526#7 4790912#0 94092820 4790912#2 4790912#4 1049894523#1 148753779#2 148753779#3 154288421#2 -1049894526#3 -1047227964#6 -1047227964#5 -153963642#0 -1047227965#3 -1047227965#2 -1047227965#1 -1047227962#0 -173149678 1052302093#0 1047227962#0 1047227962#1 1047227965#2 1047227965#3 1047227965#4 1047227965#5 1047227965#6 1047227965#7 1047227965#8 1047227965#9 1047227965#10 1047227963 1052302088 1053166661#0 1053166661#1 1053166661#2 1053166661#3" >
        <stop busStop="1012940956" duration="20" until="32.0"/> <!-- Prenzlauer Allee/Ostseestraße -->
        <stop busStop="1615477793" duration="20" until="63.0"/> <!-- Erich-Weinert-Straße -->
        <stop busStop="1615477765" duration="20" until="94.0"/> <!-- S Prenzlauer Allee -->
        <stop busStop="1615477753" duration="20" until="204.0"/> <!-- Fröbelstraße -->
        <stop busStop="30305106" duration="20" until="330.0"/> <!-- Prenzlauer Allee/Danziger Straße -->
        <stop busStop="1840238871" duration="20" until="385.0"/> <!-- Marienburger Straße -->
        <stop busStop="1840254052" duration="20" until="416.0"/> <!-- Knaackstraße -->
        <stop busStop="1840260314" duration="20" until="447.0"/> <!-- Prenzlauer Allee/Metzer Straße -->
        <stop busStop="1840309842" duration="20" until="564.0"/> <!-- Mollstraße/Prenzlauer Allee -->
    </route>
    <route id="pt_subway_U4:1" color="255,205,0" edges="386822740 446918538 446918543 420900704 454894412#0 454894412#1 -386822743 -375935981" >
        <stop busStop="2097309445" duration="20" until="40.0"/> <!-- Nollendorfplatz -->
        <stop busStop="5134718475" duration="20" until="137.0"/> <!-- Viktoria-Luise-Platz -->
        <stop busStop="3901824898" duration="20" until="229.0"/> <!-- Bayerischer Platz -->
        <stop busStop="-310377165" duration="20" until="329.0"/> <!-- Innsbrucker Platz -->
    </route>
    <route id="pt_tram_M6:2" color="0,51,136" edges="91569855#1 688149980#1 688155125 86934323#1 154339629 167893760#0 167893760#1 167893760#2 167893760#3 86260988 345057723#0 345057723#1 345057723#2 1039993869 168294596#0 168294596#1 168294596#2 168294596#3 168294596#4 168298367 175506754" >
        <stop busStop="6450818478" duration="20" until="38.0"/> <!-- Virchowstraße -->
        <stop busStop="244129991" duration="20" until="113.0"/> <!-- Landsberger Allee/Petersburger Straße -->
        <stop busStop="98878581" duration="20" until="164.0"/> <!-- S Landsberger Allee -->
        <stop busStop="30693019" duration="20" until="275.0"/> <!-- Oderbruchstraße -->
        <stop busStop="1865279611" duration="20" until="313.0"/> <!-- Judith-Auer-Straße -->
        <stop busStop="1679204623" duration="20" until="344.0"/> <!-- Hohenschönhauser Straße -->
        <stop busStop="30684982" duration="20" until="471.0"/> <!-- Altenhofer Straße -->
    </route>
    <route id="pt_train_RB24:1" color="123,109,172" edges="29359224#0 29359224#1 29359224#2 446633276 28834977 41893771#1 41893771#2 41893771#3 41893771#4 215394585#0 215394585#1 -463431361 -361525471#1 -361525471#0 4741206#3 215408265 -383960618#1 -383960618#0 -375331584 -719344618 -1125949323 -4741205#1 -4741205#0 -119455490#2 -119455490#1 -119455490#0 -28243482#1 386052955#1 1125299953 417039020#1 200143176 158470016#1 1125072788 24165863 446633275 24165894#1" >
        <stop busStop="3936632578" duration="20" until="448.0"/> <!-- Berlin Ostkreuz -->
    </route>
    <route id="pt_train_RB25:1" color="0,124,176" edges="446700170 635807492#1 -517034395 -30691606#0" >
        <stop busStop="5316085165" duration="20" until="59.0"/> <!-- Berlin Ostkreuz -->
    </route>
    <route id="pt_train_FLX_10:0" color="green" edges="299339994#0 299339994#1 10360559 360851797 899117257 136703837#0 136703837#1 27681613 26476809 437534088 427323914 40643585 27681611#0 27681611#1 27681611#2 237729333 739860376 460364213#1 460364213#2 460364213#3 460364213#4 357555812 4440336" >
        <stop busStop="567469911" duration="20" until="164.0"/> <!-- Berlin Südkreuz -->
        <stop busStop="2813070491" duration="20" until="711.0"/> <!-- Berlin Hauptbahnhof (Tief) -->
    </route>
    <route id="pt_tram_50:1" color="54,171,148" edges="319927328#0" >
        <stop busStop="243847233" duration="20" until="33.0"/> <!-- Virchow-Klinikum -->
        <stop busStop="30302050" duration="20" until="64.0"/> <!-- Seestraße/Amrumer Straße -->
        <stop busStop="35528193" duration="20" until="95.0"/> <!-- U Seestraße -->
    </route>
    <route id="pt_tram_18:0" color="255,102,51" edges="175777883 99729382#0 99729382#1 99729382#2 99729382#3 99729382#4 99729382#5 171867095#0 171867095#1 171867095#2 175479660 167893757#0 167893757#1 167893757#2 167893757#3 167893757#4 1047227960 -86934323#0 -688149980#1 -688149980#0" >
        <stop busStop="276002421" duration="20" until="75.0"/> <!-- Bernhard-Bästlein-Straße -->
        <stop busStop="30695385" duration="20" until="194.0"/> <!-- Roederplatz -->
        <stop busStop="1829909910" duration="20" until="225.0"/> <!-- Anton-Saefkow-Platz -->
        <stop busStop="1867058882" duration="20" until="256.0"/> <!-- Karl-Lade-Straße -->
        <stop busStop="1860777038" duration="20" until="420.0"/> <!-- S Landsberger Allee -->
        <stop busStop="1787945074" duration="20" until="520.0"/> <!-- Landsberger Allee/Petersburger Straße -->
        <stop busStop="-6450818478" duration="20" until="588.0"/> <!-- Virchowstraße -->
    </route>
    <route id="pt_tram_16:0" color="0,102,153" edges="1172699618 -1046122738#0 -1044302685 -168294596#4 -155531554#2 -155531554#1 -155531554#0 168281374#0 1044574242#1 155531560#0 155531560#1 155531560#2 155531560#3 4789146 1045111722#0 1045111722#1" >
        <stop busStop="1828810863" duration="20" until="63.0"/> <!-- Altenhofer Straße -->
        <stop busStop="1795862367" duration="20" until="144.0"/> <!-- Hohenschönhauser Straße -->
        <stop busStop="30684987" duration="20" until="175.0"/> <!-- Landsberger Allee/Weißenseer Weg -->
        <stop busStop="1830281726" duration="20" until="206.0"/> <!-- Roederplatz -->
        <stop busStop="30695393" duration="20" until="332.0"/> <!-- Möllendorffstraße/Storkower Straße -->
        <stop busStop="669763367" duration="20" until="415.0"/> <!-- Loeperplatz -->
        <stop busStop="288268231" duration="20" until="446.0"/> <!-- Rathaus Lichtenberg -->
        <stop busStop="288268520" duration="20" until="477.0"/> <!-- S+U Frankfurter Allee -->
        <stop busStop="10657421608" duration="20" until="508.0"/> <!-- Jessnerstraße -->
    </route>
    <route id="pt_tram_16:1" color="0,102,153" edges="806903746 56473174 -23913905#5 -23913905#4 -23913905#3 -23913905#2 -23913905#1 -23913905#0 168293908 168298367 175506754" >
        <stop busStop="10657421609" duration="20" until="38.0"/> <!-- Jessnerstraße -->
        <stop busStop="1679204630" duration="20" until="69.0"/> <!-- S+U Frankfurter Allee -->
        <stop busStop="1679204629" duration="20" until="100.0"/> <!-- Rathaus Lichtenberg -->
        <stop busStop="1679204625" duration="20" until="131.0"/> <!-- Loeperplatz -->
        <stop busStop="1679204628" duration="20" until="294.0"/> <!-- Möllendorffstraße/Storkower Straße -->
        <stop busStop="3901927132" duration="20" until="366.0"/> <!-- Roederplatz -->
        <stop busStop="1679204624" duration="20" until="397.0"/> <!-- Landsberger Allee/Weißenseer Weg -->
        <stop busStop="243460732" duration="20" until="428.0"/> <!-- Hohenschönhauser Straße -->
        <stop busStop="30684982" duration="20" until="559.0"/> <!-- Altenhofer Straße -->
    </route>
    <route id="pt_train_ICE_11:0" edges="299339989 271420275 460364211#0 460364211#1 628028609 237729335 437534086#1 4756290#0 4756290#1 27681617 494829336 10360549 10360548#1 142019448 271420277 252505272#0 252505272#1 252505272#2" >
        <stop busStop="3856100095" duration="20" until="31.0"/> <!-- Berlin Hauptbahnhof (Tief) -->
        <stop busStop="604676237" duration="20" until="438.0"/> <!-- Berlin Südkreuz -->
    </route>
    <route id="pt_train_RE8:1" color="129,109,166" edges="299339994#0 299339994#1 10360559 360851797 899117257 136703837#0 136703837#1 27681613 26476809 437534088 427323914 142142493#0 142142493#1 12702400 460364213#0 460364213#1 460364213#2 460364213#3 460364213#4 357555812 4440336" >
        <stop busStop="567469911" duration="20" until="307.0"/> <!-- Berlin Südkreuz -->
        <stop busStop="2456043651" duration="20" until="479.0"/> <!-- Berlin Potsdamer Platz -->
        <stop busStop="2813070491" duration="20" until="715.0"/> <!-- Berlin Hauptbahnhof (Tief) -->
    </route>
    <route id="pt_light_rail_S45:0" color="186,138,77" edges="344073168 29653893 292236433 1155777189 383989506 141176099 292235128#0 292235128#1 292235128#2 292235128#3 292235128#4 28812475 463435052#1 463435052#2 -28812477#2 -28812477#1 -230942386#1 -230942386#0 -191680453#1 -191680453#0 25983302#1 25983302#2" >
        <stop busStop="29925371" duration="20" until="58.0"/> <!-- Köllnische Heide -->
        <stop busStop="316778068" duration="20" until="216.0"/> <!-- Neukölln -->
        <stop busStop="1095078246" duration="20" until="294.0"/> <!-- Hermannstraße -->
        <stop busStop="27540514" duration="20" until="469.0"/> <!-- Tempelhof -->
        <stop busStop="1095078318" duration="20" until="570.0"/> <!-- Südkreuz -->
    </route>
    <route id="pt_light_rail_S45:1" color="186,138,77" edges="52782252 191680447#0 191680447#1 191680443 230942389#1 191680457#0 191680457#1 191680457#2 191680457#3 191680457#4 191680457#5 191680457#6 191680457#7 527200509 32548219#0 32548219#1 32548219#2 321030049#3 463435053#1 463435053#2 28812478 28812479#1 28812479#2 28812479#3 28812479#4 28812479#5 292235130 292236429 292236430 24590411" >
        <stop busStop="4946539230" duration="20" until="51.0"/> <!-- Südkreuz -->
        <stop busStop="316775452" duration="20" until="155.0"/> <!-- Tempelhof -->
        <stop busStop="27554979" duration="20" until="323.0"/> <!-- Hermannstraße -->
        <stop busStop="1095078302" duration="20" until="399.0"/> <!-- Neukölln -->
        <stop busStop="596414162" duration="20" until="476.0"/> <!-- Köllnische Heide -->
    </route>
    <route id="pt_train_ICE_11:1" edges="299339994#0 299339994#1 219826697 271420273 10360564 44732150 299339990#0 299339990#1 427323913 27681611#0 27681611#1 27681611#2 237729333 460364212#1 460364212#2 739812072 191591508#1 739812071 459344273#1 200229908" >
        <stop busStop="567469913" duration="20" until="381.0"/> <!-- Berlin Südkreuz -->
        <stop busStop="3856100101" duration="20" until="657.0"/> <!-- Berlin Hauptbahnhof (Tief) -->
    </route>
    <route id="pt_subway_U9:1" color="255,115,0" edges="229155496 374919448 392577193 380967342#0 380967342#1 390060715" >
        <stop busStop="4337566850" duration="20" until="73.0"/> <!-- Schloßstraße -->
    </route>
    <route id="pt_light_rail_S47:1" color="186,138,77" edges="292235130 292236429 292236430 24590411" >
        <stop busStop="27554979" duration="20" until="41.0"/> <!-- Hermannstraße -->
        <stop busStop="1095078302" duration="20" until="117.0"/> <!-- Neukölln -->
        <stop busStop="596414162" duration="20" until="194.0"/> <!-- Köllnische Heide -->
    </route>
    <route id="pt_train_FLX_35:0" color="116,223,0" edges="299339994#0 299339994#1 219826697 271420273 10360564 44732150 299339990#0 299339990#1 427323913 27681611#0 27681611#1 27681611#2 237729333 460364212#1 460364212#2 460364212#3 191591510 240526030 191701865 625014979 191702339 625014980 245849246 -421230281 -421230284 -191702338 -421230279 -482129453#1 -482129453#0 -298691970#2 -298691970#1 -298691970#0 -23714886 -25817242#3 -42302169 -363581639#3 -363581639#2 -363581639#1 -142142495 -427539171#1 -427539171#0 -291229471 -291229019 42302163 291229017 27992309#1 27992311#1 15245198#1 295391380#1" >
        <stop busStop="567469913" duration="20" until="164.0"/> <!-- Berlin Südkreuz -->
        <stop busStop="3856100102" duration="20" until="500.0"/> <!-- Berlin Hauptbahnhof (Tief) -->
    </route>
    <route id="pt_light_rail_S3:2" color="5,90,153" edges="898204976 1011538966 136697959#0 136697959#1 25005724#0 25005724#1 517041117#0 517041117#1 517041117#2 517041117#3 517041117#4 517041117#5 654481302#1 517040802#0 517040802#1 517040802#2 545190929 432785722#1 432785722#2 432785722#3 446682258 446682260 446682255#0 446682255#1 446682255#2 446682255#3 385250925 719295168#0 719295168#1 385258472#1 385258472#2" >
        <stop busStop="2837556544" duration="20" until="37.0"/> <!-- Ostbahnhof -->
        <stop busStop="5032009260" duration="20" until="143.0"/> <!-- Warschauer Straße -->
        <stop busStop="4439191866" duration="20" until="257.0"/> <!-- Ostkreuz -->
        <stop busStop="5046353031" duration="20" until="332.0"/> <!-- Rummelsburg -->
    </route>
    <route id="pt_light_rail_S3:3" color="5,90,153" edges="385258471#0 385258471#1 385258471#2 174528749#1 174528752 407544832#1 520764267 407544837 446682252#0 446682252#1 446682261#1 446682261#2 446682261#3 446682261#4 446682261#5 520764265#0 520764265#1 654481298#0 654481298#1 371846330#1 371846330#2 371846330#3 -371846331#2 -371846331#1 -371846331#0 -588080167 -311894115#0 -136697970" >
        <stop busStop="1106283718" duration="20" until="98.0"/> <!-- Rummelsburg -->
        <stop busStop="4095970537" duration="20" until="182.0"/> <!-- Ostkreuz -->
        <stop busStop="6132735787" duration="20" until="282.0"/> <!-- Warschauer Straße -->
        <stop busStop="-2837556544" duration="20" until="389.0"/> <!-- Ostbahnhof -->
    </route>
    <route id="pt_tram_M13:0" color="0,204,0" edges="30711172 1044512709 1044512706#3 1044512706#4 806903746 56473174 -23913905#5 -23913905#4 -23913905#3 -23913905#2 -23913905#1 -23913905#0 168297526 155531563#0 155531563#1 155531563#2 155531563#4" >
        <stop busStop="469466577" duration="20" until="42.0"/> <!-- Revaler Straße -->
        <stop busStop="1822518522" duration="20" until="96.0"/> <!-- Libauer Straße -->
        <stop busStop="1137469153" duration="20" until="127.0"/> <!-- Wühlischstraße/Gärtnerstraße -->
        <stop busStop="471493996" duration="20" until="158.0"/> <!-- Holteistraße -->
        <stop busStop="386790206" duration="20" until="300.0"/> <!-- Traveplatz -->
        <stop busStop="10657421609" duration="20" until="331.0"/> <!-- Jessnerstraße -->
        <stop busStop="1679204630" duration="20" until="362.0"/> <!-- S+U Frankfurter Allee -->
        <stop busStop="1679204629" duration="20" until="393.0"/> <!-- Rathaus Lichtenberg -->
        <stop busStop="1679204625" duration="20" until="424.0"/> <!-- Loeperplatz -->
        <stop busStop="1679204628" duration="20" until="587.0"/> <!-- Möllendorffstraße/Storkower Straße -->
        <stop busStop="3901927132" duration="20" until="659.0"/> <!-- Roederplatz -->
        <stop busStop="1679204624" duration="20" until="690.0"/> <!-- Landsberger Allee/Weißenseer Weg -->
        <stop busStop="243460732" duration="20" until="721.0"/> <!-- Hohenschönhauser Straße -->
    </route>
    <route id="pt_tram_M2:1" color="51,255,51" edges="1052302093#0 1047227962#0 1047227962#1 1047227965#2 1047227965#3 1047227965#4 1047227965#5 1047227965#6 1047227965#7 1047227965#8 1047227965#9 1047227965#10 1047227963 1052302088 1053166661#0 1053166661#1 1053166661#2 1053166661#3" >
        <stop busStop="1012940956" duration="20" until="32.0"/> <!-- Prenzlauer Allee/Ostseestraße -->
        <stop busStop="1615477793" duration="20" until="63.0"/> <!-- Erich-Weinert-Straße -->
        <stop busStop="1615477765" duration="20" until="94.0"/> <!-- S Prenzlauer Allee -->
        <stop busStop="1615477753" duration="20" until="204.0"/> <!-- Fröbelstraße -->
        <stop busStop="30305106" duration="20" until="560.0"/> <!-- Prenzlauer Allee/Danziger Straße -->
        <stop busStop="1840238871" duration="20" until="615.0"/> <!-- Marienburger Straße -->
        <stop busStop="1840254052" duration="20" until="646.0"/> <!-- Knaackstraße -->
        <stop busStop="1840260314" duration="20" until="677.0"/> <!-- Prenzlauer Allee/Metzer Straße -->
        <stop busStop="1840309842" duration="20" until="794.0"/> <!-- Mollstraße/Prenzlauer Allee -->
    </route>
    <route id="pt_tram_M4:2" color="187,0,0" edges="803941122 22962554#1 1051100384 22962555 150178429 150178430#1 150178892#2 150178892#3 150178892#4 150178892#5 406073854#0 406073854#2 406073854#3 406073854#4 406073854#5 1051378101 1046903875#1 1046903874" >
        <stop busStop="1633759760" duration="20" until="41.0"/> <!-- S Hackescher Markt -->
        <stop busStop="30731481" duration="20" until="72.0"/> <!-- Spandauer Straße/Marienkirche -->
        <stop busStop="30731508" duration="20" until="164.0"/> <!-- S+U Alexanderplatz/Gontardstraße -->
        <stop busStop="30731497" duration="20" until="195.0"/> <!-- U Alexanderplatz -->
        <stop busStop="244486144" duration="20" until="353.0"/> <!-- Mollstraße/Otto-Braun-Straße -->
        <stop busStop="2201770565" duration="20" until="404.0"/> <!-- Am Friedrichshain -->
        <stop busStop="1631119467" duration="20" until="435.0"/> <!-- Hufelandstraße -->
        <stop busStop="271774347" duration="20" until="466.0"/> <!-- Greifswalder Straße/Danziger Straße -->
        <stop busStop="1789155580" duration="20" until="680.0"/> <!-- S Greifswalder Straße -->
        <stop busStop="1789155581" duration="20" until="711.0"/> <!-- Thomas-Mann-Straße -->
        <stop busStop="1576686929" duration="20" until="742.0"/> <!-- Greifswalder Straße/Ostseestraße -->
        <stop busStop="1789155577" duration="20" until="912.0"/> <!-- Antonplatz -->
        <stop busStop="1631224840" duration="20" until="943.0"/> <!-- Albertinenstraße -->
    </route>
    <route id="pt_subway_U9:0" color="255,115,0" edges="390061859#3 380985925#1 392577194#1 463418761 274269224" >
        <stop busStop="3932145083" duration="20" until="38.0"/> <!-- Leopoldplatz -->
        <stop busStop="29045597" duration="20" until="115.0"/> <!-- Amrumer Straße -->
        <stop busStop="29045594" duration="20" until="161.0"/> <!-- Westhafen -->
        <stop busStop="29045592" duration="20" until="192.0"/> <!-- Birkenstraße -->
        <stop busStop="4337566853" duration="20" until="311.0"/> <!-- Turmstraße -->
        <stop busStop="29046446" duration="20" until="391.0"/> <!-- Hansaplatz -->
        <stop busStop="2790337972" duration="20" until="489.0"/> <!-- Zoologischer Garten -->
        <stop busStop="3162501790" duration="20" until="538.0"/> <!-- Kurfürstendamm -->
        <stop busStop="4337566655" duration="20" until="569.0"/> <!-- Spichernstraße -->
    </route>
    <route id="pt_tram_M8:2" color="255,102,51" edges="175777883 99729382#0 99729382#1 99729382#2 99729382#3 99729382#4 99729382#5 175862172 1039993869 168300721 168281374#0 1044574242#1 155531556 99729382#5 171867095#0 171867095#1 171867095#2 175479660 167893757#0 167893757#1 167893757#2 167893757#3 167893757#4 1047227960" >
        <stop busStop="276002421" duration="20" until="56.0"/> <!-- Bernhard-Bästlein-Straße -->
        <stop busStop="30695385" duration="20" until="109.0"/> <!-- Roederplatz -->
        <stop busStop="1829909910" duration="20" until="140.0"/> <!-- Anton-Saefkow-Platz -->
        <stop busStop="1867058882" duration="20" until="171.0"/> <!-- Karl-Lade-Straße -->
        <stop busStop="1860777038" duration="20" until="576.0"/> <!-- S Landsberger Allee -->
        <stop busStop="1787945074" duration="20" until="675.0"/> <!-- Landsberger Allee/Petersburger Straße -->
    </route>
    <route id="pt_train_RB13:1" color="255,89,0" edges="4515576#0 4515576#1 361178791#1 4537018#1" >
        <stop busStop="3656889352" duration="20" until="701.0"/> <!-- Berlin Jungfernheide -->
    </route>
    <route id="pt_light_rail_S2:1" color="1,138,71" edges="29327006#0 29327006#1 29327006#2 29327006#3 136703812#1 136703812#2 136703812#3 238452719 26477120 503475928 494022014#0 494022014#1 494022020 238192692 29326643 465161746#1 459344271 230976794#1 230976794#2 29343804#1 230957295#1 464700828 230977081#0 230977081#1 386821327#0 386821327#1 230977080#1 155187888#1 155187885#1 291342460 155187889 82937680 4631622 275929272 1156003279 29385328#0 29385328#1 29385328#2" >
        <stop busStop="1095078257" duration="20" until="94.0"/> <!-- Südkreuz -->
        <stop busStop="290175314" duration="20" until="217.0"/> <!-- Yorckstraße -->
        <stop busStop="322633851" duration="20" until="335.0"/> <!-- Anhalter Bahnhof -->
        <stop busStop="322796203" duration="20" until="411.0"/> <!-- Potsdamer Platz -->
        <stop busStop="322796388" duration="20" until="492.0"/> <!-- Brandenburger Tor -->
        <stop busStop="1930939368" duration="20" until="523.0"/> <!-- Friedrichstraße -->
        <stop busStop="1769645503" duration="20" until="554.0"/> <!-- Oranienburger Straße -->
        <stop busStop="322799089" duration="20" until="688.0"/> <!-- Nordbahnhof -->
        <stop busStop="1676057413" duration="20" until="795.0"/> <!-- Humboldthain -->
        <stop busStop="1127966949" duration="20" until="875.0"/> <!-- Gesundbrunnen -->
    </route>
    <route id="pt_train_RB24:0" color="218,107,162" edges="24165843 24165803#1 24165750 1125072787 421179330 200143858#1 417039023#0 417039023#1 1125299954 28243482#1 28243482#2 119455490#1 119455490#2 446633272 4741205#1 1125949323 719344618 375331572 383960614 383960618#1 -215408265 -4741206#3 361525471#0 361525471#1 361525471#2 32058695 -215394585#0 -41893771#4 -215394586 41893766#2 41893766#3 41893766#4 41893766#5 30859064 4740908#0 4740908#1 4740908#2 4740908#3" >
        <stop busStop="1342275460" duration="20" until="478.0"/> <!-- Berlin Ostkreuz -->
    </route>
    <route id="pt_subway_U1:1" color="82,180,71" edges="26252974 592151254 199887589 199887591 384345633 384345628#1 155667522#1 384804028 29277317#1 463873973 32673836 199742067 383591848#1 383591848#2 199544360 199882646" >