<?xml version="1.0" encoding="UTF-8"?>

<!-- generated on 2023-08-18 14:00:16 by Eclipse SUMO netconvert Version 1.13.0
<configuration xmlns:xsi="http://www.w3.org/2001/XMLSchema-instance" xsi:noNamespaceSchemaLocation="http://sumo.dlr.de/xsd/netconvertConfiguration.xsd">

    <input>
        <type-files value="E:\sumo\data\typemap\osmNetconvert.typ.xml"/>
        <osm-files value="osm_bbox.osm.xml.gz"/>
    </input>

    <output>
        <output-file value="osm.net.xml"/>
        <output.street-names value="true"/>
        <output.original-names value="true"/>
        <ptstop-output value="osm_stops.add.xml"/>
        <ptline-output value="osm_ptlines.xml"/>
    </output>

    <projection>
        <proj.utm value="true"/>
    </projection>

    <processing>
        <geometry.remove value="true"/>
        <roundabouts.guess value="true"/>
    </processing>

    <tls_building>
        <tls.discard-simple value="true"/>
        <tls.join value="true"/>
        <tls.guess-signals value="true"/>
        <tls.default-type value="actuated"/>
    </tls_building>

    <ramp_guessing>
        <ramps.guess value="true"/>
    </ramp_guessing>

    <junctions>
        <junctions.join value="true"/>
        <junctions.corner-detail value="5"/>
    </junctions>

    <railway>
        <railway.topology.repair value="true"/>
        <railway.topology.repair.stop-turn value="true"/>
    </railway>

    <report>
        <verbose value="true"/>
        <aggregate-warnings value="5"/>
    </report>

</configuration>
-->

<additional xmlns:xsi="http://www.w3.org/2001/XMLSchema-instance" xsi:noNamespaceSchemaLocation="http://sumo.dlr.de/xsd/additional_file.xsd">
    <busStop id="-1012940956" name="Prenzlauer Allee/Ostseestraße" lane="-173149678_0" startPos="707.47" endPos="732.47" friendlyPos="true"/>
    <busStop id="-10657421608" name="Jessnerstraße" lane="-806903747_0" startPos="113.66" endPos="138.66" friendlyPos="true"/>
    <busStop id="-10657421609" name="Jessnerstraße" lane="-1045111721_0" startPos="1096.97" endPos="1121.97" friendlyPos="true"/>
    <busStop id="-107020135" name="Frankfurter Tor" lane="199425795#4_0" startPos="2879.81" endPos="3079.81" friendlyPos="true"/>
    <busStop id="-1095078318" name="Südkreuz" lane="-136703827_0" startPos="0.00" endPos="155.73" friendlyPos="true"/>
    <busStop id="-110124633" name="Halensee" lane="-4407773#1_0" startPos="7.80" endPos="204.83" friendlyPos="true"/>
    <busStop id="-11071468448" name="Kriminalgericht Moabit" lane="-1164628142#1_0" startPos="972.48" endPos="997.48" friendlyPos="true"/>
    <busStop id="-11118312088" name="Turmstraße/Lübecker Straße" lane="-1164628142#1_0" startPos="386.57" endPos="411.57" friendlyPos="true"/>
    <busStop id="-11118312095" name="Alt-Moabit/Rathenower Straße" lane="-1164628142#1_0" startPos="1430.56" endPos="1455.56" friendlyPos="true"/>
    <busStop id="-1127966943" name="Wedding" lane="-23707857#0_0" startPos="155.82" endPos="355.82" friendlyPos="true"/>
    <busStop id="-1127966954" name="Prenzlauer Allee" lane="-42146224_0" startPos="0.00" endPos="144.70" friendlyPos="true"/>
    <busStop id="-1127966986" name="Landsberger Allee" lane="-1155829919_0" startPos="115.49" endPos="315.49" friendlyPos="true"/>
    <busStop id="-1127967008" name="Landsberger Allee" lane="-427231840#0_0" startPos="120.33" endPos="320.33" friendlyPos="true"/>
    <busStop id="-1127967028" name="Greifswalder Straße" lane="-463431365#0_0" startPos="0.00" endPos="110.82" friendlyPos="true"/>
    <busStop id="-1127967031" name="Wedding" lane="-27708533#0_0" startPos="0.00" endPos="110.62" friendlyPos="true"/>
    <busStop id="-1144890464" name="Mehringdamm" lane="-523653759_0" startPos="0.00" endPos="189.34" friendlyPos="true"/>
    <busStop id="-128376788" name="Messe Nord/ICC" lane="-1155801229_0" startPos="0.00" endPos="130.66" friendlyPos="true"/>
    <busStop id="-129730706" name="Karl-Marx-Straße" lane="-375522060_0" startPos="31.76" endPos="200.52" friendlyPos="true"/>
    <busStop id="-1342275460" name="Berlin Ostkreuz" lane="-363038681_0" startPos="193.40" endPos="393.40" friendlyPos="true"/>
    <busStop id="-146866102" name="Sandinostraße" lane="155531542_0" startPos="356.66" endPos="381.66" friendlyPos="true"/>
    <busStop id="-1576803497" name="Greifswalder Straße/Ostseestraße" lane="406073856_0" startPos="1303.85" endPos="1328.85" friendlyPos="true"/>
    <busStop id="-1615477753" name="Fröbelstraße" lane="-1047227962#0_0" startPos="110.69" endPos="135.69" friendlyPos="true"/>
    <busStop id="-1615477765" name="S Prenzlauer Allee" lane="-173149678_0" startPos="74.23" endPos="99.23" friendlyPos="true"/>
    <busStop id="-1615477793" name="Erich-Weinert-Straße" lane="-173149678_0" startPos="457.62" endPos="482.62" friendlyPos="true"/>
    <busStop id="-1615531689" name="S+U Alexanderplatz/Dircksenstraße" lane="-803941113_0" startPos="9.37" endPos="34.37" friendlyPos="true"/>
    <busStop id="-1628877119" name="S+U Alexanderplatz/Dircksenstraße" lane="-148452597#2_0" startPos="24.61" endPos="49.61" friendlyPos="true"/>
    <busStop id="-1631354284" name="Mollstraße/Prenzlauer Allee" lane="-1052302087#0_0" startPos="0.00" endPos="24.05" friendlyPos="true"/>
    <busStop id="-1633759766" name="S Hackescher Markt" lane="-93630923_0" startPos="128.72" endPos="153.72" friendlyPos="true"/>
    <busStop id="-1661140876" name="U Rosa-Luxemburg-Platz" lane="-153424812#1_0" startPos="3.97" endPos="28.97" friendlyPos="true"/>
    <busStop id="-1661927028" name="Monbijouplatz" lane="-1053166658_0" startPos="789.60" endPos="814.60" friendlyPos="true"/>
    <busStop id="-1662140222" name="U Rosenthaler Platz" lane="-1049894532#1_0" startPos="17.70" endPos="42.70" friendlyPos="true"/>
    <busStop id="-1662153916" name="U Weinmeisterstraße/Gipsstraße" lane="1049894530#2_0" startPos="510.62" endPos="535.62" friendlyPos="true"/>
    <busStop id="-1666049727" name="Husemannstraße" lane="-93707831#0_0" startPos="305.12" endPos="330.12" friendlyPos="true"/>
    <busStop id="-1666049729" name="Husemannstraße" lane="-1049894526#3_0" startPos="394.21" endPos="419.21" friendlyPos="true"/>
    <busStop id="-1666049778" name="U Eberswalder Straße" lane="-1049894526#3_0" startPos="17.98" endPos="42.98" friendlyPos="true"/>
    <busStop id="-1667940451" name="Pappelplatz" lane="-144015555_0" startPos="249.29" endPos="274.29" friendlyPos="true"/>
    <busStop id="-1668427073" name="Schwedter Straße" lane="-104669630_0" startPos="455.34" endPos="480.34" friendlyPos="true"/>
    <busStop id="-1668497956" name="S Hackescher Markt" lane="-153537614#1_0" startPos="0.00" endPos="19.06" friendlyPos="true"/>
    <busStop id="-1668685086" name="U Oranienburger Tor" lane="-1053166658_0" startPos="2.65" endPos="27.65" friendlyPos="true"/>
    <busStop id="-1668717159" name="S Oranienburger Straße" lane="-30721656#0_0" startPos="578.42" endPos="603.42" friendlyPos="true"/>
    <busStop id="-1673526976" name="Georgenstraße/Am Kupfergraben" lane="-167272531#1_0" startPos="1267.33" endPos="1292.33" friendlyPos="true"/>
    <busStop id="-1679204623" name="Hohenschönhauser Straße" lane="-1039996625#1_0" startPos="0.00" endPos="22.03" friendlyPos="true"/>
    <busStop id="-1679204624" name="Landsberger Allee/Weißenseer Weg" lane="-155531555#1_0" startPos="371.91" endPos="396.91" friendlyPos="true"/>
    <busStop id="-1679204625" name="Loeperplatz" lane="-1045111721_0" startPos="35.29" endPos="60.29" friendlyPos="true"/>
    <busStop id="-1679204628" name="Möllendorffstraße/Storkower Straße" lane="-155531552_0" startPos="274.19" endPos="299.19" friendlyPos="true"/>
    <busStop id="-1679204629" name="Rathaus Lichtenberg" lane="-1045111721_0" startPos="510.08" endPos="535.08" friendlyPos="true"/>
    <busStop id="-1679204630" name="S+U Frankfurter Allee" lane="-1045111721_0" startPos="772.62" endPos="797.62" friendlyPos="true"/>
    <busStop id="-1745157972" name="Jannowitzbrücke" lane="-377474960#1_0" startPos="0.00" endPos="133.46" friendlyPos="true"/>
    <busStop id="-1745174995" name="Bellevue" lane="-32515021#0_0" startPos="663.64" endPos="849.15" friendlyPos="true"/>
    <busStop id="-1745174999" name="Tiergarten" lane="-51268880#0_0" startPos="640.84" endPos="840.84" friendlyPos="true"/>
    <busStop id="-1745221431" name="Savignyplatz" lane="-37427016_0" startPos="109.21" endPos="309.21" friendlyPos="true"/>
    <busStop id="-1745221443" name="Westkreuz" lane="-802255093_0" startPos="0.00" endPos="141.36" friendlyPos="true"/>
    <busStop id="-1745221448" name="Zoologischer Garten" lane="-37427016_0" startPos="1070.40" endPos="1234.11" friendlyPos="true"/>
    <busStop id="-1789092673" name="U Alexanderplatz" lane="-150394165_0" startPos="114.65" endPos="139.65" friendlyPos="true"/>
    <busStop id="-1789130798" name="Am Friedrichshain" lane="-1047244910#1_0" startPos="427.55" endPos="452.55" friendlyPos="true"/>
    <busStop id="-1795862367" name="Hohenschönhauser Straße" lane="-1044574242#0_0" startPos="975.57" endPos="1000.57" friendlyPos="true"/>
    <busStop id="-1806004200" name="Beusselstraße" lane="-446633269#0_0" startPos="480.86" endPos="680.86" friendlyPos="true"/>
    <busStop id="-1806004214" name="Halensee" lane="-290741156#1_0" startPos="0.00" endPos="189.60" friendlyPos="true"/>
    <busStop id="-1806004216" name="Heidelberger Platz" lane="-374931227#0_0" startPos="0.00" endPos="124.94" friendlyPos="true"/>
    <busStop id="-1806004219" name="Hohenzollerndamm" lane="-384165128_0" startPos="0.00" endPos="129.63" friendlyPos="true"/>
    <busStop id="-1806004231" name="Westhafen" lane="-438832773_0" startPos="0.00" endPos="127.03" friendlyPos="true"/>
    <busStop id="-1813427810" name="Traveplatz" lane="-167791954#0_0" startPos="61.42" endPos="86.42" friendlyPos="true"/>
    <busStop id="-1823298700" name="S+U Friedrichstraße" lane="-167272531#1_0" startPos="712.03" endPos="737.03" friendlyPos="true"/>
    <busStop id="-1829909910" name="Anton-Saefkow-Platz" lane="-1039993871_0" startPos="520.16" endPos="545.16" friendlyPos="true"/>
    <busStop id="-1830281726" name="Roederplatz" lane="-1044574242#0_0" startPos="0.00" endPos="22.80" friendlyPos="true"/>
    <busStop id="-1837885455" name="Friedrich-Ludwig-Jahn-Sportpark" lane="-101687024#1_0" startPos="168.55" endPos="193.55" friendlyPos="true"/>
    <busStop id="-1837885456" name="Gedenkstätte Berliner Mauer" lane="-1049894519#3_0" startPos="352.83" endPos="377.83" friendlyPos="true"/>
    <busStop id="-1837885458" name="S Nordbahnhof" lane="-177148022_0" startPos="82.05" endPos="107.05" friendlyPos="true"/>
    <busStop id="-1837885479" name="U Bernauer Straße" lane="-1049894519#3_0" startPos="864.99" endPos="889.99" friendlyPos="true"/>
    <busStop id="-1837885483" name="Wolliner Straße" lane="-1049894523#0_0" startPos="298.12" endPos="323.12" friendlyPos="true"/>
    <busStop id="-1837885485" name="Wolliner Straße" lane="-1049894519#3_0" startPos="1281.37" endPos="1306.37" friendlyPos="true"/>
    <busStop id="-1837885772" name="U Bernauer Straße" lane="-1049894523#0_0" startPos="727.00" endPos="752.00" friendlyPos="true"/>
    <busStop id="-1840190519" name="Prenzlauer Allee/Danziger Straße" lane="-93707831#0_0" startPos="0.00" endPos="24.47" friendlyPos="true"/>
    <busStop id="-1840238871" name="Marienburger Straße" lane="-1052302090#3_0" startPos="819.94" endPos="844.94" friendlyPos="true"/>
    <busStop id="-1840254052" name="Knaackstraße" lane="-1052302090#3_0" startPos="590.31" endPos="615.31" friendlyPos="true"/>
    <busStop id="-1840260314" name="Prenzlauer Allee/Metzer Straße" lane="-1052302090#3_0" startPos="334.93" endPos="359.93" friendlyPos="true"/>
    <busStop id="-1840309842" name="Mollstraße/Prenzlauer Allee" lane="-331114770_0" startPos="3.66" endPos="28.66" friendlyPos="true"/>
    <busStop id="-1840333892" name="S+U Alexanderplatz/Memhardstraße" lane="-1053166659#3_0" startPos="53.71" endPos="78.71" friendlyPos="true"/>
    <busStop id="-1861798256" name="Humannplatz" lane="-61877061#0_0" startPos="899.05" endPos="924.05" friendlyPos="true"/>
    <busStop id="-1861798266" name="Stargarder Straße" lane="-61877061#0_0" startPos="602.56" endPos="627.56" friendlyPos="true"/>
    <busStop id="-1861798441" name="Raumerstraße" lane="-61877061#0_0" startPos="123.63" endPos="148.63" friendlyPos="true"/>
    <busStop id="-1862699772" name="S Oranienburger Straße" lane="-1053166658_0" startPos="334.62" endPos="359.62" friendlyPos="true"/>
    <busStop id="-1862786356" name="Mollstraße/Otto-Braun-Straße" lane="-1047244909_0" startPos="0.00" endPos="20.87" friendlyPos="true"/>
    <busStop id="-1865279611" name="Judith-Auer-Straße" lane="-1039996625#1_0" startPos="386.02" endPos="411.02" friendlyPos="true"/>
    <busStop id="-1866503923" name="Friedrich-Ludwig-Jahn-Sportpark" lane="-148753779#1_0" startPos="364.63" endPos="389.63" friendlyPos="true"/>
    <busStop id="-1866509895" name="Mollstraße/Prenzlauer Allee" lane="-1047244909_0" startPos="212.18" endPos="237.18" friendlyPos="true"/>
    <busStop id="-1867058882" name="Karl-Lade-Straße" lane="-1039993871_0" startPos="75.30" endPos="100.30" friendlyPos="true"/>
    <busStop id="-1888408611" name="Behaimstraße" lane="-56473177_0" startPos="225.49" endPos="250.49" friendlyPos="true"/>
    <busStop id="-1888408612" name="Behaimstraße" lane="-1046903876_0" startPos="210.03" endPos="235.03" friendlyPos="true"/>
    <busStop id="-1920671945" name="Charlottenburg" lane="-37427053#0_0" startPos="0.00" endPos="160.35" friendlyPos="true"/>
    <busStop id="-196758117" name="Senefelderplatz" lane="-375386235_0" startPos="2478.65" endPos="2678.65" friendlyPos="true"/>
    <busStop id="-2085211643" name="S+U Hauptbahnhof" lane="-291670886#0_0" startPos="634.54" endPos="659.54" friendlyPos="true"/>
    <busStop id="-2094266775" name="Alexanderplatz" lane="-381214594#0_0" startPos="3062.81" endPos="3262.81" friendlyPos="true"/>
    <busStop id="-2094266776" name="Alexanderplatz" lane="-381471709_0" startPos="5705.36" endPos="5905.36" friendlyPos="true"/>
    <busStop id="-2094266777" name="Alexanderplatz" lane="199425795#4_0" startPos="0.00" endPos="138.45" friendlyPos="true"/>
    <busStop id="-2094266780" name="Alexanderplatz" lane="-272795470#0_0" startPos="0.00" endPos="171.25" friendlyPos="true"/>
    <busStop id="-2097309445" name="Nollendorfplatz" lane="-386822742_0" startPos="87.90" endPos="268.45" friendlyPos="true"/>
    <busStop id="-2097818462" name="Kottbusser Tor" lane="-155667526#0_0" startPos="0.00" endPos="170.63" friendlyPos="true"/>
    <busStop id="-2098684204" name="Uhlandstraße" lane="-807043956_0" startPos="0.00" endPos="115.96" friendlyPos="true"/>
    <busStop id="-2098707385" name="Prinzenstraße" lane="-384804026_0" startPos="446.31" endPos="646.31" friendlyPos="true"/>
    <busStop id="-2098710710" name="Hallesches Tor" lane="-384804026_0" startPos="1465.85" endPos="1665.85" friendlyPos="true"/>
    <busStop id="-2108146647" name="Westkreuz" lane="-290872961_0" startPos="0.00" endPos="112.44" friendlyPos="true"/>
    <busStop id="-2108146652" name="Westkreuz" lane="-31028606_0" startPos="0.00" endPos="146.97" friendlyPos="true"/>
    <busStop id="-2175753204" name="Am Kupfergraben" lane="-207364192#0_0" startPos="19.55" endPos="44.55" friendlyPos="true"/>
    <busStop id="-243460732" name="Hohenschönhauser Straße" lane="-155531555#1_0" startPos="3.50" endPos="28.50" friendlyPos="true"/>
    <busStop id="-243854585" name="Erich-Weinert-Straße" lane="-87099563#1_0" startPos="379.17" endPos="404.17" friendlyPos="true"/>
    <busStop id="-243855398" name="Fröbelstraße" lane="-87099563#1_0" startPos="1031.65" endPos="1056.65" friendlyPos="true"/>
    <busStop id="-244484708" name="Gedenkstätte Berliner Mauer" lane="-1049894523#0_0" startPos="1127.92" endPos="1152.92" friendlyPos="true"/>
    <busStop id="-244486083" name="S+U Alexanderplatz/Dircksenstraße" lane="-1051100388_0" startPos="15.69" endPos="40.69" friendlyPos="true"/>
    <busStop id="-244487457" name="Hannoversche Straße" lane="-100113768_0" startPos="84.32" endPos="109.32" friendlyPos="true"/>
    <busStop id="-2456043650" name="Berlin Potsdamer Platz" lane="-237729334_0" startPos="0.00" endPos="181.52" friendlyPos="true"/>
    <busStop id="-2456043651" name="Berlin Potsdamer Platz" lane="-237729336_0" startPos="0.00" endPos="181.59" friendlyPos="true"/>
    <busStop id="-2456043652" name="Berlin Potsdamer Platz" lane="-142142492#0_0" startPos="2136.72" endPos="2336.72" friendlyPos="true"/>
    <busStop id="-247600965" name="S+U Friedrichstraße" lane="-144014237_0" startPos="282.00" endPos="307.00" friendlyPos="true"/>
    <busStop id="-247603398" name="Am Kupfergraben" lane="-144014242_0" startPos="49.46" endPos="74.46" friendlyPos="true"/>
    <busStop id="-2490859942" name="Gesundbrunnen" lane="-44908547#0_0" startPos="51.45" endPos="194.33" friendlyPos="true"/>
    <busStop id="-249189069" name="Humboldthain" lane="-230977079#0_0" startPos="0.00" endPos="154.50" friendlyPos="true"/>
    <busStop id="-253845582" name="Bundestag" lane="-421618229#0_0" startPos="278.63" endPos="478.63" friendlyPos="true"/>
    <busStop id="-253846340" name="Brandenburger Tor" lane="-421618229#0_0" startPos="1034.27" endPos="1196.76" friendlyPos="true"/>
    <busStop id="-2603331683" name="Berlin Friedrichstraße" lane="-421021565#0_0" startPos="69.60" endPos="263.08" friendlyPos="true"/>
    <busStop id="-2603331695" name="Friedrichstraße" lane="-29384521#0_0" startPos="23.79" endPos="223.79" friendlyPos="true"/>
    <busStop id="-26124364" name="Jungfernheide" lane="-4553164#0_0" startPos="259.44" endPos="459.44" friendlyPos="true"/>
    <busStop id="-26124401" name="Berlin Gesundbrunnen" lane="-4740770#0_0" startPos="172.78" endPos="372.78" friendlyPos="true"/>
    <busStop id="-263577639" name="Rathaus Neukölln" lane="-465669923#0_0" startPos="703.48" endPos="850.05" friendlyPos="true"/>
    <busStop id="-270165592" name="Uhlandstraße" lane="-199882645_0" startPos="0.00" endPos="139.92" friendlyPos="true"/>
    <busStop id="-271766938" name="U Eberswalder Straße" lane="-148753779#1_0" startPos="9.29" endPos="34.29" friendlyPos="true"/>
    <busStop id="-271774348" name="Greifswalder Straße/Danziger Straße" lane="10596479#4_0" startPos="1749.47" endPos="1773.32" friendlyPos="true"/>
    <busStop id="-27411231" name="Alexanderplatz" lane="-72984377#0_0" startPos="0.00" endPos="161.81" friendlyPos="true"/>
    <busStop id="-27411240" name="Hackescher Markt" lane="-32590638_0" startPos="235.91" endPos="435.91" friendlyPos="true"/>
    <busStop id="-27412648" name="Hauptbahnhof" lane="-114919150_0" startPos="0.00" endPos="145.39" friendlyPos="true"/>
    <busStop id="-27424921" name="Berlin Potsdamer Platz" lane="-437534086#0_0" startPos="2030.40" endPos="2211.38" friendlyPos="true"/>
    <busStop id="-27527830" name="Westkreuz" lane="-438414951#0_0" startPos="0.00" endPos="127.54" friendlyPos="true"/>
    <busStop id="-27540514" name="Tempelhof" lane="-463435052#1_0" startPos="0.00" endPos="130.04" friendlyPos="true"/>
    <busStop id="-2774974735" name="Weberwiese" lane="199425795#4_0" startPos="2188.76" endPos="2388.76" friendlyPos="true"/>
    <busStop id="-2776873647" name="Berlin Alexanderplatz" lane="-32572618#0_0" startPos="0.00" endPos="179.03" friendlyPos="true"/>
    <busStop id="-2781518430" name="Zoologischer Garten" lane="-273275701#0_0" startPos="0.00" endPos="144.59" friendlyPos="true"/>
    <busStop id="-2812237303" name="Brandenburger Tor" lane="-421618236_0" startPos="0.00" endPos="126.90" friendlyPos="true"/>
    <busStop id="-2813070481" name="Berlin Hauptbahnhof" lane="-643739286_0" startPos="51.76" endPos="251.76" friendlyPos="true"/>
    <busStop id="-2813070482" name="Berlin Hauptbahnhof" lane="-85258723_0" startPos="57.16" endPos="257.16" friendlyPos="true"/>
    <busStop id="-2813070483" name="Berlin Hauptbahnhof" lane="-85258726#0_0" startPos="171.68" endPos="371.68" friendlyPos="true"/>
    <busStop id="-2813070484" name="Berlin Hauptbahnhof" lane="-85258725#0_0" startPos="174.10" endPos="374.10" friendlyPos="true"/>
    <busStop id="-2813070486" name="Hauptbahnhof" lane="-85258728#0_0" startPos="0.00" endPos="174.07" friendlyPos="true"/>
    <busStop id="-2813070487" name="Berlin Hauptbahnhof (Tief)" lane="-140478326_0" startPos="201.48" endPos="401.48" friendlyPos="true"/>
    <busStop id="-2813070488" name="Berlin Hauptbahnhof (Tief)" lane="-240526027_0" startPos="199.75" endPos="399.75" friendlyPos="true"/>
    <busStop id="-2813070489" name="Berlin Hauptbahnhof (Tief)" lane="-240526028_0" startPos="199.38" endPos="399.38" friendlyPos="true"/>
    <busStop id="-2813070490" name="Berlin Hauptbahnhof (Tief)" lane="-240526029_0" startPos="199.82" endPos="399.82" friendlyPos="true"/>
    <busStop id="-282768191" name="Zitadelle" lane="-98960743_0" startPos="1416.89" endPos="1616.89" friendlyPos="true"/>
    <busStop id="-2831020548" name="Lüneburger Straße" lane="-802255082#1_0" startPos="121.17" endPos="146.17" friendlyPos="true"/>
    <busStop id="-2831020549" name="Clara-Jaschke-Straße" lane="-122463699#0_0" startPos="24.04" endPos="49.04" friendlyPos="true"/>
    <busStop id="-2831020554" name="Lesser-Ury-Weg" lane="-291670886#0_0" startPos="73.82" endPos="98.82" friendlyPos="true"/>
    <busStop id="-2837556541" name="Berlin Ostbahnhof" lane="-136697962_0" startPos="0.00" endPos="100.00" friendlyPos="true"/>
    <busStop id="-2837556542" name="Berlin Ostbahnhof" lane="-588080160#0_0" startPos="46.73" endPos="246.73" friendlyPos="true"/>
    <busStop id="-2837556543" name="Berlin Ostbahnhof" lane="-136697966_0" startPos="0.00" endPos="199.95" friendlyPos="true"/>
    <busStop id="-2837556544" name="Ostbahnhof" lane="-136697970_0" startPos="0.00" endPos="185.75" friendlyPos="true"/>
    <busStop id="-288268231" name="Rathaus Lichtenberg" lane="-806903747_0" startPos="735.56" endPos="760.56" friendlyPos="true"/>
    <busStop id="-288268520" name="S+U Frankfurter Allee" lane="-806903747_0" startPos="505.20" endPos="530.20" friendlyPos="true"/>
    <busStop id="-289666280" name="Berlin Gesundbrunnen" lane="-241452818#0_0" startPos="179.81" endPos="353.86" friendlyPos="true"/>
    <busStop id="-289666288" name="Berlin Gesundbrunnen" lane="-460364210_0" startPos="0.00" endPos="164.26" friendlyPos="true"/>
    <busStop id="-2914606227" name="Brunnenstraße/Invalidenstraße" lane="-144015555_0" startPos="66.68" endPos="91.68" friendlyPos="true"/>
    <busStop id="-29494288" name="Heinrich-Heine-Straße" lane="-381214594#0_0" startPos="1691.77" endPos="1891.77" friendlyPos="true"/>
    <busStop id="-29494289" name="Moritzplatz" lane="-381214594#0_0" startPos="851.29" endPos="1051.29" friendlyPos="true"/>
    <busStop id="-29494563" name="Eberswalder Straße" lane="-375386235_0" startPos="1507.53" endPos="1707.53" friendlyPos="true"/>
    <busStop id="-29495029" name="Klosterstraße" lane="-177195505#0_0" startPos="0.00" endPos="193.35" friendlyPos="true"/>
    <busStop id="-29495034" name="Märkisches Museum" lane="-384294423#0_0" startPos="18.83" endPos="218.83" friendlyPos="true"/>
    <busStop id="-29495041" name="Hausvogteiplatz" lane="-387141732_0" startPos="613.98" endPos="813.98" friendlyPos="true"/>
    <busStop id="-2951367727" name="Invalidenpark" lane="-291670886#0_0" startPos="1159.32" endPos="1184.32" friendlyPos="true"/>
    <busStop id="-2951553387" name="Invalidenpark" lane="-1049894512_0" startPos="310.66" endPos="335.66" friendlyPos="true"/>
    <busStop id="-29805120" name="Berlin Friedrichstraße" lane="-25946657#0_0" startPos="0.00" endPos="146.58" friendlyPos="true"/>
    <busStop id="-29833425" name="Konstanzer Straße" lane="-391391727_0" startPos="2005.05" endPos="2205.05" friendlyPos="true"/>
    <busStop id="-29833491" name="Adenauerplatz" lane="-435864724#0_0" startPos="1853.30" endPos="2053.30" friendlyPos="true"/>
    <busStop id="-30206148" name="Berlin Gesundbrunnen" lane="-363588103#0_0" startPos="81.30" endPos="281.30" friendlyPos="true"/>
    <busStop id="-30206151" name="Berlin Gesundbrunnen" lane="-241452816#0_0" startPos="219.19" endPos="419.19" friendlyPos="true"/>
    <busStop id="-30206819" name="Berlin Gesundbrunnen" lane="-44908522_0" startPos="142.47" endPos="342.47" friendlyPos="true"/>
    <busStop id="-30304944" name="Prenzlauer Allee/Ostseestraße" lane="-87099563#1_0" startPos="6.44" endPos="31.44" friendlyPos="true"/>
    <busStop id="-30305102" name="S Prenzlauer Allee" lane="-87099563#1_0" startPos="644.65" endPos="669.65" friendlyPos="true"/>
    <busStop id="-30305106" name="Prenzlauer Allee/Danziger Straße" lane="-1047227965#1_0" startPos="10.07" endPos="35.07" friendlyPos="true"/>
    <busStop id="-30305107" name="Prenzlauer Allee/Danziger Straße" lane="-153963632#1_0" startPos="2.04" endPos="27.04" friendlyPos="true"/>
    <busStop id="-30353449" name="Oranienburger Straße" lane="-459344270#0_0" startPos="1384.91" endPos="1584.91" friendlyPos="true"/>
    <busStop id="-30684982" name="Altenhofer Straße" lane="-1172699619_0" startPos="379.76" endPos="404.76" friendlyPos="true"/>
    <busStop id="-30684987" name="Landsberger Allee/Weißenseer Weg" lane="-1044574242#0_0" startPos="605.12" endPos="630.12" friendlyPos="true"/>
    <busStop id="-30693019" name="Oderbruchstraße" lane="-1039996625#1_0" startPos="1011.29" endPos="1036.29" friendlyPos="true"/>
    <busStop id="-30695385" name="Roederplatz" lane="-1039993871_0" startPos="1183.61" endPos="1208.61" friendlyPos="true"/>
    <busStop id="-30731507" name="Mollstraße/Otto-Braun-Straße" lane="-1047244910#1_0" startPos="6.11" endPos="31.11" friendlyPos="true"/>
    <busStop id="-30731700" name="U Oranienburger Tor" lane="-167272531#1_0" startPos="5.09" endPos="30.09" friendlyPos="true"/>
    <busStop id="-30732016" name="U Rosa-Luxemburg-Platz" lane="-150201972#0_0" startPos="324.07" endPos="349.07" friendlyPos="true"/>
    <busStop id="-30732068" name="S+U Alexanderplatz/Memhardstraße" lane="-86208412#0_0" startPos="406.54" endPos="431.54" friendlyPos="true"/>
    <busStop id="-30732071" name="Mollstraße/Prenzlauer Allee" lane="-1052302089_0" startPos="680.33" endPos="703.87" friendlyPos="true"/>
    <busStop id="-30733475" name="Prenzlauer Allee/Metzer Straße" lane="-1052302089_0" startPos="252.45" endPos="277.45" friendlyPos="true"/>
    <busStop id="-30733478" name="Knaackstraße" lane="-1052302089_0" startPos="0.00" endPos="15.57" friendlyPos="true"/>
    <busStop id="-30733479" name="Marienburger Straße" lane="-153963632#1_0" startPos="299.87" endPos="324.87" friendlyPos="true"/>
    <busStop id="-30733487" name="Thomas-Mann-Straße" lane="406073856_0" startPos="967.13" endPos="992.13" friendlyPos="true"/>
    <busStop id="-30733493" name="Antonplatz" lane="-150217571_0" startPos="14.47" endPos="39.47" friendlyPos="true"/>
    <busStop id="-310377165" name="Innsbrucker Platz" lane="-375935981_0" startPos="0.00" endPos="89.31" friendlyPos="true"/>
    <busStop id="-31207786" name="Wilmersdorfer Straße" lane="-391391727_0" startPos="600.22" endPos="800.22" friendlyPos="true"/>
    <busStop id="-315501112" name="Westhafen" lane="-4543951#0_0" startPos="1223.18" endPos="1423.18" friendlyPos="true"/>
    <busStop id="-315735263" name="Zionskirchplatz" lane="-153537603_0" startPos="28.05" endPos="53.05" friendlyPos="true"/>
    <busStop id="-316785822" name="Prenzlauer Allee" lane="-1155829920_0" startPos="0.00" endPos="164.26" friendlyPos="true"/>
    <busStop id="-316786620" name="Storkower Straße" lane="-1125949325#0_0" startPos="947.41" endPos="1147.41" friendlyPos="true"/>
    <busStop id="-316787417" name="Frankfurter Allee" lane="-375331609_0" startPos="0.00" endPos="117.90" friendlyPos="true"/>
    <busStop id="-3169023533" name="Weberwiese" lane="-381471709_0" startPos="3447.39" endPos="3647.39" friendlyPos="true"/>
    <busStop id="-3176620360" name="Albertinenstraße" lane="-94131345#1_0" startPos="260.11" endPos="285.11" friendlyPos="true"/>
    <busStop id="-3199101963" name="Marktstraße" lane="-440027186#0_0" startPos="142.52" endPos="167.52" friendlyPos="true"/>
    <busStop id="-323203892" name="Spittelmarkt" lane="-387141732_0" startPos="0.00" endPos="168.01" friendlyPos="true"/>
    <busStop id="-3236522163" name="U Naturkundemuseum" lane="-291670886#0_0" startPos="1592.03" endPos="1617.03" friendlyPos="true"/>
    <busStop id="-3253288878" name="S+U Hauptbahnhof" lane="-1049894512_0" startPos="844.84" endPos="869.84" friendlyPos="true"/>
    <busStop id="-3356361111" name="Boddinstraße" lane="-328814248#0_0" startPos="0.00" endPos="105.10" friendlyPos="true"/>
    <busStop id="-3419608814" name="Berlin-Charlottenburg" lane="-37427043_0" startPos="228.27" endPos="428.27" friendlyPos="true"/>
    <busStop id="-3419608815" name="Berlin-Charlottenburg" lane="-37427041_0" startPos="229.54" endPos="429.54" friendlyPos="true"/>
    <busStop id="-3419608816" name="Berlin-Charlottenburg" lane="-23462686#0_0" startPos="102.17" endPos="302.17" friendlyPos="true"/>
    <busStop id="-3419608817" name="Berlin-Charlottenburg" lane="-37427059#0_0" startPos="0.00" endPos="113.39" friendlyPos="true"/>
    <busStop id="-3419623867" name="Berlin Zoologischer Garten" lane="-273265018#1_0" startPos="184.68" endPos="384.68" friendlyPos="true"/>
    <busStop id="-361482764" name="Neue Bahnhofstraße" lane="-1044512703#0_0" startPos="285.36" endPos="310.36" friendlyPos="true"/>
    <busStop id="-365145502" name="U Eberswalder Straße/Pappelallee" lane="154288421#3_0" startPos="39.60" endPos="64.60" friendlyPos="true"/>